Real-World Graph/Germany_grid_data/0.5/matpower.m
function mpc = matpower

%% MATPOWER Case Format : Version 2
mpc.version = '2';

%%%%-----  Power Flow Data  -----%%%%
%%%% system MVA base
mpc.baseMVA = 400;

%%%% bus data
%%	bus_i	type	Pd	Qd	Gs	Bs	area	Vm	Va	baseKV	zone	Vmax	Vmin	lam_P	lam_Q	mu_Vmax	mu_Vmin
mpc.bus = [
	2	1	222.71	0	0	0	1	1	0	380	1	1.05	0.95	0.0000	0.0000	0.0000	0.0000;
	4	1	588.63	0	0	0	1	1	0	380	1	1.05	0.95	0.0000	0.0000	0.0000	0.0000;
	5	1	273.9	0	0	0	1	1	0	380	1	1.05	0.95	0.0000	0.0000	0.0000	0.0000;
	6	1	263.69	0	0	0	1	1	0	380	1	1.05	0.95	0.0000	0.0000	0.0000	0.0000;
	7	1	1636.56	0	0	0	1	1	0	380	1	1.05	0.95	0.0000	0.0000	0.0000	0.0000;
	8	1	318.321	0	0	0	1	1	0	380	1	1.05	0.95	0.0000	0.0000	0.0000	0.0000;
	9	1	227.214	0	0	0	1	1	0	380	1	1.05	0.95	0.0000	0.0000	0.0000	0.0000;
	10	1	233.105	0	0	0	1	1	0	380	1	1.05	0.95	0.0000	0.0000	0.0000	0.0000;
	11	2	-67.5974	0	0	0	1	1	0	380	1	1.05	0.95	0.0000	0.0000	0.0000	0.0000;
	12	2	-73.7911	0	0	0	1	1	0	380	1	1.05	0.95	0.0000	0.0000	0.0000	0.0000;
	13	1	470.083	0	0	0	1	1	0	380	1	1.05	0.95	0.0000	0.0000	0.0000	0.0000;
	14	1	234.072	0	0	0	1	1	0	380	1	1.05	0.95	0.0000	0.0000	0.0000	0.0000;
	15	2	-78.0193	0	0	0	1	1	0	380	1	1.05	0.95	0.0000	0.0000	0.0000	0.0000;
	16	1	293.272	0	0	0	1	1	0	380	1	1.05	0.95	0.0000	0.0000	0.0000	0.0000;
	17	1	340.773	0	0	0	1	1	0	380	1	1.05	0.95	0.0000	0.0000	0.0000	0.0000;
	18	2	-63.7873	0	0	0	1	1	0	380	1	1.05	0.95	0.0000	0.0000	0.0000	0.0000;
	19	2	-137.032	0	0	0	1	1	0	380	1	1.05	0.95	0.0000	0.0000	0.0000	0.0000;
	20	1	601.787	0	0	0	1	1	0	380	1	1.05	0.95	0.0000	0.0000	0.0000	0.0000;
	21	1	156.651	0	0	0	1	1	0	380	1	1.05	0.95	0.0000	0.0000	0.0000	0.0000;
	22	1	39.8692	0	0	0	1	1	0	380	1	1.05	0.95	0.0000	0.0000	0.0000	0.0000;
	23	1	653.338	0	0	0	1	1	0	380	1	1.05	0.95	0.0000	0.0000	0.0000	0.0000;
	24	1	180.37	0	0	0	1	1	0	380	1	1.05	0.95	0.0000	0.0000	0.0000	0.0000;
	25	1	618.992	0	0	0	1	1	0	380	1	1.05	0.95	0.0000	0.0000	0.0000	0.0000;
	26	1	309.27	0	0	0	1	1	0	380	1	1.05	0.95	0.0000	0.0000	0.0000	0.0000;
	27	2	-80.3665	0	0	0	1	1	0	380	1	1.05	0.95	0.0000	0.0000	0.0000	0.0000;
	28	1	415.174	0	0	0	1	1	0	380	1	1.05	0.95	0.0000	0.0000	0.0000	0.0000;
	29	2	-53.2278	0	0	0	1	1	0	380	1	1.05	0.95	0.0000	0.0000	0.0000	0.0000;
	30	1	264.274	0	0	0	1	1	0	380	1	1.05	0.95	0.0000	0.0000	0.0000	0.0000;
	32	2	-380.527	0	0	0	1	1	0	380	1	1.05	0.95	0.0000	0.0000	0.0000	0.0000;
	33	1	517.792	0	0	0	1	1	0	380	1	1.05	0.95	0.0000	0.0000	0.0000	0.0000;
	34	1	25.0075	0	0	0	1	1	0	380	1	1.05	0.95	0.0000	0.0000	0.0000	0.0000;
	35	1	588.475	0	0	0	1	1	0	380	1	1.05	0.95	0.0000	0.0000	0.0000	0.0000;
	36	1	539.065	0	0	0	1	1	0	380	1	1.05	0.95	0.0000	0.0000	0.0000	0.0000;
	37	1	652.841	0	0	0	1	1	0	380	1	1.05	0.95	0.0000	0.0000	0.0000	0.0000;
	38	1	295.812	0	0	0	1	1	0	380	1	1.05	0.95	0.0000	0.0000	0.0000	0.0000;
	39	1	-37.7677	0	0	0	1	1	0	380	1	1.05	0.95	0.0000	0.0000	0.0000	0.0000;
	41	1	204.916	0	0	0	1	1	0	380	1	1.05	0.95	0.0000	0.0000	0.0000	0.0000;
	42	2	-130.645	0	0	0	1	1	0	380	1	1.05	0.95	0.0000	0.0000	0.0000	0.0000;
	43	1	297.35	0	0	0	1	1	0	380	1	1.05	0.95	0.0000	0.0000	0.0000	0.0000;
	44	2	-88.2236	0	0	0	1	1	0	380	1	1.05	0.95	0.0000	0.0000	0.0000	0.0000;
	45	1	349.415	0	0	0	1	1	0	380	1	1.05	0.95	0.0000	0.0000	0.0000	0.0000;
	46	1	667.391	0	0	0	1	1	0	380	1	1.05	0.95	0.0000	0.0000	0.0000	0.0000;
	47	1	632.016	0	0	0	1	1	0	380	1	1.05	0.95	0.0000	0.0000	0.0000	0.0000;
	48	2	-49.0068	0	0	0	1	1	0	380	1	1.05	0.95	0.0000	0.0000	0.0000	0.0000;
	49	1	319.389	0	0	0	1	1	0	380	1	1.05	0.95	0.0000	0.0000	0.0000	0.0000;
	50	1	301.487	0	0	0	1	1	0	380	1	1.05	0.95	0.0000	0.0000	0.0000	0.0000;
	51	1	630.334	0	0	0	1	1	0	380	1	1.05	0.95	0.0000	0.0000	0.0000	0.0000;
	52	2	-96.4944	0	0	0	1	1	0	380	1	1.05	0.95	0.0000	0.0000	0.0000	0.0000;
	53	1	379.184	0	0	0	1	1	0	380	1	1.05	0.95	0.0000	0.0000	0.0000	0.0000;
	54	2	1636.02	0	0	0	1	1	0	380	1	1.05	0.95	0.0000	0.0000	0.0000	0.0000;
	55	1	271.031	0	0	0	1	1	0	380	1	1.05	0.95	0.0000	0.0000	0.0000	0.0000;
	56	2	-257.281	0	0	0	1	1	0	380	1	1.05	0.95	0.0000	0.0000	0.0000	0.0000;
	57	1	638.06	0	0	0	1	1	0	380	1	1.05	0.95	0.0000	0.0000	0.0000	0.0000;
	58	1	269.392	0	0	0	1	1	0	380	1	1.05	0.95	0.0000	0.0000	0.0000	0.0000;
	59	2	-61.0954	0	0	0	1	1	0	380	1	1.05	0.95	0.0000	0.0000	0.0000	0.0000;
	60	2	-224.857	0	0	0	1	1	0	380	1	1.05	0.95	0.0000	0.0000	0.0000	0.0000;
	61	1	334.495	0	0	0	1	1	0	380	1	1.05	0.95	0.0000	0.0000	0.0000	0.0000;
	62	1	237.648	0	0	0	1	1	0	380	1	1.05	0.95	0.0000	0.0000	0.0000	0.0000;
	63	1	1074.36	0	0	0	1	1	0	380	1	1.05	0.95	0.0000	0.0000	0.0000	0.0000;
	64	1	307.589	0	0	0	1	1	0	380	1	1.05	0.95	0.0000	0.0000	0.0000	0.0000;
	65	1	1003.43	0	0	0	1	1	0	380	1	1.05	0.95	0.0000	0.0000	0.0000	0.0000;
	208	2	-80.445	0	0	0	1	1	0	380	1	1.05	0.95	0.0000	0.0000	0.0000	0.0000;
	66	1	-10.7729	0	0	0	1	1	0	380	1	1.05	0.95	0.0000	0.0000	0.0000	0.0000;
	67	1	174.932	0	0	0	1	1	0	380	1	1.05	0.95	0.0000	0.0000	0.0000	0.0000;
	68	1	180.349	0	0	0	1	1	0	380	1	1.05	0.95	0.0000	0.0000	0.0000	0.0000;
	69	1	-255.942	0	0	0	1	1	0	380	1	1.05	0.95	0.0000	0.0000	0.0000	0.0000;
	70	1	316.097	0	0	0	1	1	0	380	1	1.05	0.95	0.0000	0.0000	0.0000	0.0000;
	71	1	287.645	0	0	0	1	1	0	380	1	1.05	0.95	0.0000	0.0000	0.0000	0.0000;
	72	1	603.4	0	0	0	1	1	0	380	1	1.05	0.95	0.0000	0.0000	0.0000	0.0000;
	73	3	-147.664	0	0	0	1	1	0	380	1	1.05	0.95	0.0000	0.0000	0.0000	0.0000;
	74	1	639.28	0	0	0	1	1	0	380	1	1.05	0.95	0.0000	0.0000	0.0000	0.0000;
	75	1	334.873	0	0	0	1	1	0	380	1	1.05	0.95	0.0000	0.0000	0.0000	0.0000;
	76	1	386.412	0	0	0	1	1	0	380	1	1.05	0.95	0.0000	0.0000	0.0000	0.0000;
	165	2	-397.001	0	0	0	1	1	0	380	1	1.05	0.95	0.0000	0.0000	0.0000	0.0000;
	166	1	16.5072	0	0	0	1	1	0	380	1	1.05	0.95	0.0000	0.0000	0.0000	0.0000;
	79	2	-40.6846	0	0	0	1	1	0	380	1	1.05	0.95	0.0000	0.0000	0.0000	0.0000;
	80	1	0	0	0	0	1	1	0	380	1	1.05	0.95	0.0000	0.0000	0.0000	0.0000;
	81	1	322.855	0	0	0	1	1	0	380	1	1.05	0.95	0.0000	0.0000	0.0000	0.0000;
	82	1	297.889	0	0	0	1	1	0	380	1	1.05	0.95	0.0000	0.0000	0.0000	0.0000;
	83	1	648.92	0	0	0	1	1	0	380	1	1.05	0.95	0.0000	0.0000	0.0000	0.0000;
	84	1	314.523	0	0	0	1	1	0	380	1	1.05	0.95	0.0000	0.0000	0.0000	0.0000;
	85	1	-120.093	0	0	0	1	1	0	380	1	1.05	0.95	0.0000	0.0000	0.0000	0.0000;
	86	2	-27.2232	0	0	0	1	1	0	380	1	1.05	0.95	0.0000	0.0000	0.0000	0.0000;
	87	1	84.0219	0	0	0	1	1	0	380	1	1.05	0.95	0.0000	0.0000	0.0000	0.0000;
	88	1	236.255	0	0	0	1	1	0	380	1	1.05	0.95	0.0000	0.0000	0.0000	0.0000;
	89	1	280.75	0	0	0	1	1	0	380	1	1.05	0.95	0.0000	0.0000	0.0000	0.0000;
	90	1	680.261	0	0	0	1	1	0	380	1	1.05	0.95	0.0000	0.0000	0.0000	0.0000;
	91	2	-55.6292	0	0	0	1	1	0	380	1	1.05	0.95	0.0000	0.0000	0.0000	0.0000;
	92	1	295.14	0	0	0	1	1	0	380	1	1.05	0.95	0.0000	0.0000	0.0000	0.0000;
	93	2	-36.8458	0	0	0	1	1	0	380	1	1.05	0.95	0.0000	0.0000	0.0000	0.0000;
	94	1	611.325	0	0	0	1	1	0	380	1	1.05	0.95	0.0000	0.0000	0.0000	0.0000;
	95	2	-235.412	0	0	0	1	1	0	380	1	1.05	0.95	0.0000	0.0000	0.0000	0.0000;
	96	1	619.073	0	0	0	1	1	0	380	1	1.05	0.95	0.0000	0.0000	0.0000	0.0000;
	97	2	-84.4003	0	0	0	1	1	0	380	1	1.05	0.95	0.0000	0.0000	0.0000	0.0000;
	98	1	423.853	0	0	0	1	1	0	380	1	1.05	0.95	0.0000	0.0000	0.0000	0.0000;
	100	1	216.627	0	0	0	1	1	0	380	1	1.05	0.95	0.0000	0.0000	0.0000	0.0000;
	101	1	391.945	0	0	0	1	1	0	380	1	1.05	0.95	0.0000	0.0000	0.0000	0.0000;
	102	1	429.706	0	0	0	1	1	0	380	1	1.05	0.95	0.0000	0.0000	0.0000	0.0000;
	103	2	-22.684	0	0	0	1	1	0	380	1	1.05	0.95	0.0000	0.0000	0.0000	0.0000;
	104	1	253.281	0	0	0	1	1	0	380	1	1.05	0.95	0.0000	0.0000	0.0000	0.0000;
	105	1	-108.296	0	0	0	1	1	0	380	1	1.05	0.95	0.0000	0.0000	0.0000	0.0000;
	106	2	-245.828	0	0	0	1	1	0	380	1	1.05	0.95	0.0000	0.0000	0.0000	0.0000;
	107	2	-320.47	0	0	0	1	1	0	380	1	1.05	0.95	0.0000	0.0000	0.0000	0.0000;
	108	2	-131.72	0	0	0	1	1	0	380	1	1.05	0.95	0.0000	0.0000	0.0000	0.0000;
	109	1	359.913	0	0	0	1	1	0	380	1	1.05	0.95	0.0000	0.0000	0.0000	0.0000;
	110	1	30.9225	0	0	0	1	1	0	380	1	1.05	0.95	0.0000	0.0000	0.0000	0.0000;
	111	1	350.205	0	0	0	1	1	0	380	1	1.05	0.95	0.0000	0.0000	0.0000	0.0000;
	112	1	317.543	0	0	0	1	1	0	380	1	1.05	0.95	0.0000	0.0000	0.0000	0.0000;
	31	2	-105.776	0	0	0	1	1	0	380	1	1.05	0.95	0.0000	0.0000	0.0000	0.0000;
	114	1	666.268	0	0	0	1	1	0	380	1	1.05	0.95	0.0000	0.0000	0.0000	0.0000;
	115	2	-55.7551	0	0	0	1	1	0	380	1	1.05	0.95	0.0000	0.0000	0.0000	0.0000;
	116	1	332.453	0	0	0	1	1	0	380	1	1.05	0.95	0.0000	0.0000	0.0000	0.0000;
	117	1	257.903	0	0	0	1	1	0	380	1	1.05	0.95	0.0000	0.0000	0.0000	0.0000;
	118	1	212.175	0	0	0	1	1	0	380	1	1.05	0.95	0.0000	0.0000	0.0000	0.0000;
	119	1	356.437	0	0	0	1	1	0	380	1	1.05	0.95	0.0000	0.0000	0.0000	0.0000;
	120	1	634.284	0	0	0	1	1	0	380	1	1.05	0.95	0.0000	0.0000	0.0000	0.0000;
	121	1	313.711	0	0	0	1	1	0	380	1	1.05	0.95	0.0000	0.0000	0.0000	0.0000;
	122	1	4.2728	0	0	0	1	1	0	380	1	1.05	0.95	0.0000	0.0000	0.0000	0.0000;
	123	2	-172.783	0	0	0	1	1	0	380	1	1.05	0.95	0.0000	0.0000	0.0000	0.0000;
	182	1	440.88	0	0	0	1	1	0	380	1	1.05	0.95	0.0000	0.0000	0.0000	0.0000;
	124	1	568.106	0	0	0	1	1	0	380	1	1.05	0.95	0.0000	0.0000	0.0000	0.0000;
	125	2	-217.29	0	0	0	1	1	0	380	1	1.05	0.95	0.0000	0.0000	0.0000	0.0000;
	40	1	312.857	0	0	0	1	1	0	380	1	1.05	0.95	0.0000	0.0000	0.0000	0.0000;
	127	1	-116.871	0	0	0	1	1	0	380	1	1.05	0.95	0.0000	0.0000	0.0000	0.0000;
	128	2	-190.081	0	0	0	1	1	0	380	1	1.05	0.95	0.0000	0.0000	0.0000	0.0000;
	129	1	43.9648	0	0	0	1	1	0	380	1	1.05	0.95	0.0000	0.0000	0.0000	0.0000;
	99	1	372.748	0	0	0	1	1	0	380	1	1.05	0.95	0.0000	0.0000	0.0000	0.0000;
	131	1	266.809	0	0	0	1	1	0	380	1	1.05	0.95	0.0000	0.0000	0.0000	0.0000;
	132	2	-242.542	0	0	0	1	1	0	380	1	1.05	0.95	0.0000	0.0000	0.0000	0.0000;
	133	1	322.116	0	0	0	1	1	0	380	1	1.05	0.95	0.0000	0.0000	0.0000	0.0000;
	134	1	266.388	0	0	0	1	1	0	380	1	1.05	0.95	0.0000	0.0000	0.0000	0.0000;
	135	1	301.8	0	0	0	1	1	0	380	1	1.05	0.95	0.0000	0.0000	0.0000	0.0000;
	136	2	-409.837	0	0	0	1	1	0	380	1	1.05	0.95	0.0000	0.0000	0.0000	0.0000;
	130	2	-234.622	0	0	0	1	1	0	380	1	1.05	0.95	0.0000	0.0000	0.0000	0.0000;
	138	1	1369.05	0	0	0	1	1	0	380	1	1.05	0.95	0.0000	0.0000	0.0000	0.0000;
	137	1	327.134	0	0	0	1	1	0	380	1	1.05	0.95	0.0000	0.0000	0.0000	0.0000;
	140	2	-103.662	0	0	0	1	1	0	380	1	1.05	0.95	0.0000	0.0000	0.0000	0.0000;
	141	1	444.558	0	0	0	1	1	0	380	1	1.05	0.95	0.0000	0.0000	0.0000	0.0000;
	142	1	132.334	0	0	0	1	1	0	380	1	1.05	0.95	0.0000	0.0000	0.0000	0.0000;
	143	2	-90.6012	0	0	0	1	1	0	380	1	1.05	0.95	0.0000	0.0000	0.0000	0.0000;
	144	2	-69.975	0	0	0	1	1	0	380	1	1.05	0.95	0.0000	0.0000	0.0000	0.0000;
	145	1	185.224	0	0	0	1	1	0	380	1	1.05	0.95	0.0000	0.0000	0.0000	0.0000;
	147	1	385.193	0	0	0	1	1	0	380	1	1.05	0.95	0.0000	0.0000	0.0000	0.0000;
	148	2	-59.0536	0	0	0	1	1	0	380	1	1.05	0.95	0.0000	0.0000	0.0000	0.0000;
	149	1	53.9436	0	0	0	1	1	0	380	1	1.05	0.95	0.0000	0.0000	0.0000	0.0000;
	150	2	-628.814	0	0	0	1	1	0	380	1	1.05	0.95	0.0000	0.0000	0.0000	0.0000;
	151	1	615.45	0	0	0	1	1	0	380	1	1.05	0.95	0.0000	0.0000	0.0000	0.0000;
	152	1	0	0	0	0	1	1	0	380	1	1.05	0.95	0.0000	0.0000	0.0000	0.0000;
	153	2	-179.501	0	0	0	1	1	0	380	1	1.05	0.95	0.0000	0.0000	0.0000	0.0000;
	154	1	268.771	0	0	0	1	1	0	380	1	1.05	0.95	0.0000	0.0000	0.0000	0.0000;
	155	1	332.076	0	0	0	1	1	0	380	1	1.05	0.95	0.0000	0.0000	0.0000	0.0000;
	157	1	414.73	0	0	0	1	1	0	380	1	1.05	0.95	0.0000	0.0000	0.0000	0.0000;
	158	2	-46.833	0	0	0	1	1	0	380	1	1.05	0.95	0.0000	0.0000	0.0000	0.0000;
	159	2	-261.008	0	0	0	1	1	0	380	1	1.05	0.95	0.0000	0.0000	0.0000	0.0000;
	160	1	-256.51	0	0	0	1	1	0	380	1	1.05	0.95	0.0000	0.0000	0.0000	0.0000;
	161	1	207.669	0	0	0	1	1	0	380	1	1.05	0.95	0.0000	0.0000	0.0000	0.0000;
	162	1	35.0758	0	0	0	1	1	0	380	1	1.05	0.95	0.0000	0.0000	0.0000	0.0000;
	146	1	304.076	0	0	0	1	1	0	380	1	1.05	0.95	0.0000	0.0000	0.0000	0.0000;
	156	1	376.13	0	0	0	1	1	0	380	1	1.05	0.95	0.0000	0.0000	0.0000	0.0000;
	77	1	117.454	0	0	0	1	1	0	380	1	1.05	0.95	0.0000	0.0000	0.0000	0.0000;
	78	1	136.937	0	0	0	1	1	0	380	1	1.05	0.95	0.0000	0.0000	0.0000	0.0000;
	167	2	-165.645	0	0	0	1	1	0	380	1	1.05	0.95	0.0000	0.0000	0.0000	0.0000;
	168	1	152.373	0	0	0	1	1	0	380	1	1.05	0.95	0.0000	0.0000	0.0000	0.0000;
	169	1	399.293	0	0	0	1	1	0	380	1	1.05	0.95	0.0000	0.0000	0.0000	0.0000;
	3	1	347.504	0	0	0	1	1	0	380	1	1.05	0.95	0.0000	0.0000	0.0000	0.0000;
	171	1	332.049	0	0	0	1	1	0	380	1	1.05	0.95	0.0000	0.0000	0.0000	0.0000;
	172	1	324.883	0	0	0	1	1	0	380	1	1.05	0.95	0.0000	0.0000	0.0000	0.0000;
	173	2	-192.393	0	0	0	1	1	0	380	1	1.05	0.95	0.0000	0.0000	0.0000	0.0000;
	174	1	314.736	0	0	0	1	1	0	380	1	1.05	0.95	0.0000	0.0000	0.0000	0.0000;
	175	2	-631.488	0	0	0	1	1	0	380	1	1.05	0.95	0.0000	0.0000	0.0000	0.0000;
	176	2	-108.099	0	0	0	1	1	0	380	1	1.05	0.95	0.0000	0.0000	0.0000	0.0000;
	177	1	-615.307	0	0	0	1	1	0	380	1	1.05	0.95	0.0000	0.0000	0.0000	0.0000;
	178	1	11.0364	0	0	0	1	1	0	380	1	1.05	0.95	0.0000	0.0000	0.0000	0.0000;
	179	2	-123.128	0	0	0	1	1	0	380	1	1.05	0.95	0.0000	0.0000	0.0000	0.0000;
	180	2	-173.306	0	0	0	1	1	0	380	1	1.05	0.95	0.0000	0.0000	0.0000	0.0000;
	181	2	-118.323	0	0	0	1	1	0	380	1	1.05	0.95	0.0000	0.0000	0.0000	0.0000;
	139	1	1365.11	0	0	0	1	1	0	380	1	1.05	0.95	0.0000	0.0000	0.0000	0.0000;
	163	1	-55.9172	0	0	0	1	1	0	380	1	1.05	0.95	0.0000	0.0000	0.0000	0.0000;
	183	1	301.234	0	0	0	1	1	0	380	1	1.05	0.95	0.0000	0.0000	0.0000	0.0000;
	184	1	112.556	0	0	0	1	1	0	380	1	1.05	0.95	0.0000	0.0000	0.0000	0.0000;
	185	1	596.776	0	0	0	1	1	0	380	1	1.05	0.95	0.0000	0.0000	0.0000	0.0000;
	186	1	237.367	0	0	0	1	1	0	380	1	1.05	0.95	0.0000	0.0000	0.0000	0.0000;
	126	1	-392.82	0	0	0	1	1	0	380	1	1.05	0.95	0.0000	0.0000	0.0000	0.0000;
	113	1	215.685	0	0	0	1	1	0	380	1	1.05	0.95	0.0000	0.0000	0.0000	0.0000;
	164	1	170.695	0	0	0	1	1	0	380	1	1.05	0.95	0.0000	0.0000	0.0000	0.0000;
	188	1	333.506	0	0	0	1	1	0	380	1	1.05	0.95	0.0000	0.0000	0.0000	0.0000;
	187	2	-131.08	0	0	0	1	1	0	380	1	1.05	0.95	0.0000	0.0000	0.0000	0.0000;
	189	2	-42.5098	0	0	0	1	1	0	380	1	1.05	0.95	0.0000	0.0000	0.0000	0.0000;
	190	2	629.614	0	0	0	1	1	0	380	1	1.05	0.95	0.0000	0.0000	0.0000	0.0000;
	191	1	17.4028	0	0	0	1	1	0	380	1	1.05	0.95	0.0000	0.0000	0.0000	0.0000;
	192	1	323.535	0	0	0	1	1	0	380	1	1.05	0.95	0.0000	0.0000	0.0000	0.0000;
	193	2	-218.15	0	0	0	1	1	0	380	1	1.05	0.95	0.0000	0.0000	0.0000	0.0000;
	194	1	73.8865	0	0	0	1	1	0	380	1	1.05	0.95	0.0000	0.0000	0.0000	0.0000;
	195	2	-251.475	0	0	0	1	1	0	380	1	1.05	0.95	0.0000	0.0000	0.0000	0.0000;
	196	1	333.102	0	0	0	1	1	0	380	1	1.05	0.95	0.0000	0.0000	0.0000	0.0000;
	197	1	651.163	0	0	0	1	1	0	380	1	1.05	0.95	0.0000	0.0000	0.0000	0.0000;
	198	1	123.838	0	0	0	1	1	0	380	1	1.05	0.95	0.0000	0.0000	0.0000	0.0000;
	199	1	-230.772	0	0	0	1	1	0	380	1	1.05	0.95	0.0000	0.0000	0.0000	0.0000;
	200	2	-1156.71	0	0	0	1	1	0	380	1	1.05	0.95	0.0000	0.0000	0.0000	0.0000;
	201	1	-323.615	0	0	0	1	1	0	380	1	1.05	0.95	0.0000	0.0000	0.0000	0.0000;
	202	1	657.457	0	0	0	1	1	0	380	1	1.05	0.95	0.0000	0.0000	0.0000	0.0000;
	203	1	514.282	0	0	0	1	1	0	380	1	1.05	0.95	0.0000	0.0000	0.0000	0.0000;
	204	2	-17.7282	0	0	0	1	1	0	380	1	1.05	0.95	0.0000	0.0000	0.0000	0.0000;
	205	1	482.743	0	0	0	1	1	0	380	1	1.05	0.95	0.0000	0.0000	0.0000	0.0000;
	206	1	453.531	0	0	0	1	1	0	380	1	1.05	0.95	0.0000	0.0000	0.0000	0.0000;
	207	1	-159.573	0	0	0	1	1	0	380	1	1.05	0.95	0.0000	0.0000	0.0000	0.0000;
	170	1	331.945	0	0	0	1	1	0	380	1	1.05	0.95	0.0000	0.0000	0.0000	0.0000;
	209	2	-160.719	0	0	0	1	1	0	380	1	1.05	0.95	0.0000	0.0000	0.0000	0.0000;
	210	1	41.8266	0	0	0	1	1	0	380	1	1.05	0.95	0.0000	0.0000	0.0000	0.0000;
	211	2	-1620.75	0	0	0	1	1	0	380	1	1.05	0.95	0.0000	0.0000	0.0000	0.0000;
	212	1	65.7093	0	0	0	1	1	0	380	1	1.05	0.95	0.0000	0.0000	0.0000	0.0000;
	213	1	-328.429	0	0	0	1	1	0	380	1	1.05	0.95	0.0000	0.0000	0.0000	0.0000;
	214	2	-96.0541	0	0	0	1	1	0	380	1	1.05	0.95	0.0000	0.0000	0.0000	0.0000;
	215	2	-226.418	0	0	0	1	1	0	380	1	1.05	0.95	0.0000	0.0000	0.0000	0.0000;
	216	1	684.129	0	0	0	1	1	0	380	1	1.05	0.95	0.0000	0.0000	0.0000	0.0000;
	217	1	93.6667	0	0	0	1	1	0	380	1	1.05	0.95	0.0000	0.0000	0.0000	0.0000;
	218	1	69.838	0	0	0	1	1	0	380	1	1.05	0.95	0.0000	0.0000	0.0000	0.0000;
	219	1	-68.5568	0	0	0	1	1	0	380	1	1.05	0.95	0.0000	0.0000	0.0000	0.0000;
	220	1	389.532	0	0	0	1	1	0	380	1	1.05	0.95	0.0000	0.0000	0.0000	0.0000;
	221	1	179.967	0	0	0	1	1	0	380	1	1.05	0.95	0.0000	0.0000	0.0000	0.0000;
	222	1	315.481	0	0	0	1	1	0	380	1	1.05	0.95	0.0000	0.0000	0.0000	0.0000;
	223	1	273.151	0	0	0	1	1	0	380	1	1.05	0.95	0.0000	0.0000	0.0000	0.0000;
	224	1	354.259	0	0	0	1	1	0	380	1	1.05	0.95	0.0000	0.0000	0.0000	0.0000;
	225	1	259.578	0	0	0	1	1	0	380	1	1.05	0.95	0.0000	0.0000	0.0000	0.0000;
	226	1	242.129	0	0	0	1	1	0	380	1	1.05	0.95	0.0000	0.0000	0.0000	0.0000;
	227	1	537.995	0	0	0	1	1	0	380	1	1.05	0.95	0.0000	0.0000	0.0000	0.0000;
	228	1	212.676	0	0	0	1	1	0	380	1	1.05	0.95	0.0000	0.0000	0.0000	0.0000;
	229	1	229.633	0	0	0	1	1	0	380	1	1.05	0.95	0.0000	0.0000	0.0000	0.0000;
	230	1	188.854	0	0	0	1	1	0	380	1	1.05	0.95	0.0000	0.0000	0.0000	0.0000;
	231	2	-107.503	0	0	0	1	1	0	380	1	1.05	0.95	0.0000	0.0000	0.0000	0.0000;
	232	2	-72.2918	0	0	0	1	1	0	380	1	1.05	0.95	0.0000	0.0000	0.0000	0.0000;
];

%%%% branch data
%%	fbus	tbus	r	x	b	rateA	rateB	rateC	ratio	angle	status	angmin	angmax	Pf	Qf	Pt	Qt	mu_Sf	mu_St	mu_angmin	mu_angmax
mpc.branch = [
	39	117	0	0.01507	0	2400	2400	2400	1	0	1	-360	360	0.0000	0.0000	0.0000	0.0000	0.0000	0.0000	0.0000	0.0000;
	169	156	0	0.005	0	1200	1200	1200	1	0	1	-360	360	0.0000	0.0000	0.0000	0.0000	0.0000	0.0000	0.0000	0.0000;
	147	101	0	0.03698	0	1200	1200	1200	1	0	1	-360	360	0.0000	0.0000	0.0000	0.0000	0.0000	0.0000	0.0000	0.0000;
	109	69	0	0.04776	0	800	800	800	1	0	1	-360	360	0.0000	0.0000	0.0000	0.0000	0.0000	0.0000	0.0000	0.0000;
	35	42	0	0.01787	0	1600	1600	1600	1	0	1	-360	360	0.0000	0.0000	0.0000	0.0000	0.0000	0.0000	0.0000	0.0000;
	179	205	0	0.00747	0	2000	2000	2000	1	0	1	-360	360	0.0000	0.0000	0.0000	0.0000	0.0000	0.0000	0.0000	0.0000;
	139	159	0	0.00609	0	2800	2800	2800	1	0	1	-360	360	0.0000	0.0000	0.0000	0.0000	0.0000	0.0000	0.0000	0.0000;
	165	159	0	0.02821	0	1200	1200	1200	1	0	1	-360	360	0.0000	0.0000	0.0000	0.0000	0.0000	0.0000	0.0000	0.0000;
	159	201	0	0.0658	0	800	800	800	1	0	1	-360	360	0.0000	0.0000	0.0000	0.0000	0.0000	0.0000	0.0000	0.0000;
	129	148	0	0.02508	0	1200	1200	1200	1	0	1	-360	360	0.0000	0.0000	0.0000	0.0000	0.0000	0.0000	0.0000	0.0000;
	31	169	0	0.00558	0	4000	4000	4000	1	0	1	-360	360	0.0000	0.0000	0.0000	0.0000	0.0000	0.0000	0.0000	0.0000;
	26	58	0	0.01802	0	800	800	800	1	0	1	-360	360	0.0000	0.0000	0.0000	0.0000	0.0000	0.0000	0.0000	0.0000;
	232	170	0	0.00531	0	800	800	800	1	0	1	-360	360	0.0000	0.0000	0.0000	0.0000	0.0000	0.0000	0.0000	0.0000;
	190	108	0	0.04185	0	4000	4000	4000	1	0	1	-360	360	0.0000	0.0000	0.0000	0.0000	0.0000	0.0000	0.0000	0.0000;
	151	211	0	0.04386	0	1600	1600	1600	1	0	1	-360	360	0.0000	0.0000	0.0000	0.0000	0.0000	0.0000	0.0000	0.0000;
	14	26	0	0.00993	0	2000	2000	2000	1	0	1	-360	360	0.0000	0.0000	0.0000	0.0000	0.0000	0.0000	0.0000	0.0000;
	71	67	0	0.00546	0	800	800	800	1	0	1	-360	360	0.0000	0.0000	0.0000	0.0000	0.0000	0.0000	0.0000	0.0000;
	60	25	0	0.02133	0	1600	1600	1600	1	0	1	-360	360	0.0000	0.0000	0.0000	0.0000	0.0000	0.0000	0.0000	0.0000;
	134	98	0	0.04047	0	1200	1200	1200	1	0	1	-360	360	0.0000	0.0000	0.0000	0.0000	0.0000	0.0000	0.0000	0.0000;
	150	183	0	0.01257	0	800	800	800	1	0	1	-360	360	0.0000	0.0000	0.0000	0.0000	0.0000	0.0000	0.0000	0.0000;
	158	74	0	0.0203	0	1600	1600	1600	1	0	1	-360	360	0.0000	0.0000	0.0000	0.0000	0.0000	0.0000	0.0000	0.0000;
	188	11	0	0.0475	0	800	800	800	1	0	1	-360	360	0.0000	0.0000	0.0000	0.0000	0.0000	0.0000	0.0000	0.0000;
	133	11	0	0.02192	0	800	800	800	1	0	1	-360	360	0.0000	0.0000	0.0000	0.0000	0.0000	0.0000	0.0000	0.0000;
	108	171	0	0.0172	0	2000	2000	2000	1	0	1	-360	360	0.0000	0.0000	0.0000	0.0000	0.0000	0.0000	0.0000	0.0000;
	44	117	0	0.02262	0	800	800	800	1	0	1	-360	360	0.0000	0.0000	0.0000	0.0000	0.0000	0.0000	0.0000	0.0000;
	22	32	0	0.01112	0	800	800	800	1	0	1	-360	360	0.0000	0.0000	0.0000	0.0000	0.0000	0.0000	0.0000	0.0000;
	55	57	0	0.03235	0	800	800	800	1	0	1	-360	360	0.0000	0.0000	0.0000	0.0000	0.0000	0.0000	0.0000	0.0000;
	145	161	0	0.01924	0	2800	2800	2800	1	0	1	-360	360	0.0000	0.0000	0.0000	0.0000	0.0000	0.0000	0.0000	0.0000;
	206	203	0	0.02963	0	1600	1600	1600	1	0	1	-360	360	0.0000	0.0000	0.0000	0.0000	0.0000	0.0000	0.0000	0.0000;
	42	28	0	0.03684	0	800	800	800	1	0	1	-360	360	0.0000	0.0000	0.0000	0.0000	0.0000	0.0000	0.0000	0.0000;
	20	25	0	0.01766	0	800	800	800	1	0	1	-360	360	0.0000	0.0000	0.0000	0.0000	0.0000	0.0000	0.0000	0.0000;
	4	69	0	0.0203	0	800	800	800	1	0	1	-360	360	0.0000	0.0000	0.0000	0.0000	0.0000	0.0000	0.0000	0.0000;
	29	39	0	0.021	0	800	800	800	1	0	1	-360	360	0.0000	0.0000	0.0000	0.0000	0.0000	0.0000	0.0000	0.0000;
	108	135	0	0.01999	0	800	800	800	1	0	1	-360	360	0.0000	0.0000	0.0000	0.0000	0.0000	0.0000	0.0000	0.0000;
	191	150	0	0.01699	0	1200	1200	1200	1	0	1	-360	360	0.0000	0.0000	0.0000	0.0000	0.0000	0.0000	0.0000	0.0000;
	168	60	0	0.01758	0	1200	1200	1200	1	0	1	-360	360	0.0000	0.0000	0.0000	0.0000	0.0000	0.0000	0.0000	0.0000;
	36	88	0	0.00965	0	800	800	800	1	0	1	-360	360	0.0000	0.0000	0.0000	0.0000	0.0000	0.0000	0.0000	0.0000;
	165	126	0	0.01515	0	800	800	800	1	0	1	-360	360	0.0000	0.0000	0.0000	0.0000	0.0000	0.0000	0.0000	0.0000;
	173	104	0	0.00947	0	800	800	800	1	0	1	-360	360	0.0000	0.0000	0.0000	0.0000	0.0000	0.0000	0.0000	0.0000;
	20	33	0	0.028	0	1600	1600	1600	1	0	1	-360	360	0.0000	0.0000	0.0000	0.0000	0.0000	0.0000	0.0000	0.0000;
	91	97	0	0.01377	0	1200	1200	1200	1	0	1	-360	360	0.0000	0.0000	0.0000	0.0000	0.0000	0.0000	0.0000	0.0000;
	38	8	0	0.00912	0	1200	1200	1200	1	0	1	-360	360	0.0000	0.0000	0.0000	0.0000	0.0000	0.0000	0.0000	0.0000;
	47	51	0	0.01103	0	4000	4000	4000	1	0	1	-360	360	0.0000	0.0000	0.0000	0.0000	0.0000	0.0000	0.0000	0.0000;
	151	216	0	0.02023	0	800	800	800	1	0	1	-360	360	0.0000	0.0000	0.0000	0.0000	0.0000	0.0000	0.0000	0.0000;
	174	172	0	0.00473	0	800	800	800	1	0	1	-360	360	0.0000	0.0000	0.0000	0.0000	0.0000	0.0000	0.0000	0.0000;
	134	102	0	0.05398	0	2000	2000	2000	1	0	1	-360	360	0.0000	0.0000	0.0000	0.0000	0.0000	0.0000	0.0000	0.0000;
	74	72	0	0.07252	0	2400	2400	2400	1	0	1	-360	360	0.0000	0.0000	0.0000	0.0000	0.0000	0.0000	0.0000	0.0000;
	56	166	0	0.01048	0	2000	2000	2000	1	0	1	-360	360	0.0000	0.0000	0.0000	0.0000	0.0000	0.0000	0.0000	0.0000;
	213	218	0	0.02512	0	800	800	800	1	0	1	-360	360	0.0000	0.0000	0.0000	0.0000	0.0000	0.0000	0.0000	0.0000;
	125	168	0	0.01164	0	1600	1600	1600	1	0	1	-360	360	0.0000	0.0000	0.0000	0.0000	0.0000	0.0000	0.0000	0.0000;
	54	56	0	0.00857	0	1600	1600	1600	1	0	1	-360	360	0.0000	0.0000	0.0000	0.0000	0.0000	0.0000	0.0000	0.0000;
	8	117	0	0.01954	0	800	800	800	1	0	1	-360	360	0.0000	0.0000	0.0000	0.0000	0.0000	0.0000	0.0000	0.0000;
	10	144	0	0.0186	0	800	800	800	1	0	1	-360	360	0.0000	0.0000	0.0000	0.0000	0.0000	0.0000	0.0000	0.0000;
	133	192	0	0.05944	0	1200	1200	1200	1	0	1	-360	360	0.0000	0.0000	0.0000	0.0000	0.0000	0.0000	0.0000	0.0000;
	9	32	0	0.02899	0	1600	1600	1600	1	0	1	-360	360	0.0000	0.0000	0.0000	0.0000	0.0000	0.0000	0.0000	0.0000;
	118	34	0	0.06515	0	800	800	800	1	0	1	-360	360	0.0000	0.0000	0.0000	0.0000	0.0000	0.0000	0.0000	0.0000;
	119	49	0	0.02222	0	800	800	800	1	0	1	-360	360	0.0000	0.0000	0.0000	0.0000	0.0000	0.0000	0.0000	0.0000;
	97	47	0	0.06543	0	800	800	800	1	0	1	-360	360	0.0000	0.0000	0.0000	0.0000	0.0000	0.0000	0.0000	0.0000;
	15	17	0	0.03216	0	1600	1600	1600	1	0	1	-360	360	0.0000	0.0000	0.0000	0.0000	0.0000	0.0000	0.0000	0.0000;
	140	145	0	0.02412	0	2400	2400	2400	1	0	1	-360	360	0.0000	0.0000	0.0000	0.0000	0.0000	0.0000	0.0000	0.0000;
	164	168	0	0.00507	0	1200	1200	1200	1	0	1	-360	360	0.0000	0.0000	0.0000	0.0000	0.0000	0.0000	0.0000	0.0000;
	73	74	0	0.00844	0	2000	2000	2000	1	0	1	-360	360	0.0000	0.0000	0.0000	0.0000	0.0000	0.0000	0.0000	0.0000;
	116	123	0	0.00573	0	1600	1600	1600	1	0	1	-360	360	0.0000	0.0000	0.0000	0.0000	0.0000	0.0000	0.0000	0.0000;
	47	115	0	0.04114	0	1200	1200	1200	1	0	1	-360	360	0.0000	0.0000	0.0000	0.0000	0.0000	0.0000	0.0000	0.0000;
	160	187	0	0.11579	0	800	800	800	1	0	1	-360	360	0.0000	0.0000	0.0000	0.0000	0.0000	0.0000	0.0000	0.0000;
	187	87	0	0.02515	0	3200	3200	3200	1	0	1	-360	360	0.0000	0.0000	0.0000	0.0000	0.0000	0.0000	0.0000	0.0000;
	128	142	0	0.01776	0	2000	2000	2000	1	0	1	-360	360	0.0000	0.0000	0.0000	0.0000	0.0000	0.0000	0.0000	0.0000;
	40	7	0	0.0257	0	800	800	800	1	0	1	-360	360	0.0000	0.0000	0.0000	0.0000	0.0000	0.0000	0.0000	0.0000;
	39	18	0	0.01715	0	800	800	800	1	0	1	-360	360	0.0000	0.0000	0.0000	0.0000	0.0000	0.0000	0.0000	0.0000;
	41	92	0	0.01592	0	800	800	800	1	0	1	-360	360	0.0000	0.0000	0.0000	0.0000	0.0000	0.0000	0.0000	0.0000;
	122	113	0	0.01437	0	1200	1200	1200	1	0	1	-360	360	0.0000	0.0000	0.0000	0.0000	0.0000	0.0000	0.0000	0.0000;
	137	59	0	0.01492	0	1200	1200	1200	1	0	1	-360	360	0.0000	0.0000	0.0000	0.0000	0.0000	0.0000	0.0000	0.0000;
	30	222	0	0.00804	0	1200	1200	1200	1	0	1	-360	360	0.0000	0.0000	0.0000	0.0000	0.0000	0.0000	0.0000	0.0000;
	191	106	0	0.01197	0	1600	1600	1600	1	0	1	-360	360	0.0000	0.0000	0.0000	0.0000	0.0000	0.0000	0.0000	0.0000;
	10	180	0	0.02024	0	4000	4000	4000	1	0	1	-360	360	0.0000	0.0000	0.0000	0.0000	0.0000	0.0000	0.0000	0.0000;
	200	202	0	0.01449	0	1600	1600	1600	1	0	1	-360	360	0.0000	0.0000	0.0000	0.0000	0.0000	0.0000	0.0000	0.0000;
	62	112	0	0.01569	0	4000	4000	4000	1	0	1	-360	360	0.0000	0.0000	0.0000	0.0000	0.0000	0.0000	0.0000	0.0000;
	32	21	0	0.00935	0	800	800	800	1	0	1	-360	360	0.0000	0.0000	0.0000	0.0000	0.0000	0.0000	0.0000	0.0000;
	24	37	0	0.006	0	800	800	800	1	0	1	-360	360	0.0000	0.0000	0.0000	0.0000	0.0000	0.0000	0.0000	0.0000;
	224	226	0	0.01069	0	800	800	800	1	0	1	-360	360	0.0000	0.0000	0.0000	0.0000	0.0000	0.0000	0.0000	0.0000;
	219	129	0	0.10217	0	800	800	800	1	0	1	-360	360	0.0000	0.0000	0.0000	0.0000	0.0000	0.0000	0.0000	0.0000;
	113	68	0	0.007	0	1200	1200	1200	1	0	1	-360	360	0.0000	0.0000	0.0000	0.0000	0.0000	0.0000	0.0000	0.0000;
	160	198	0	0.05981	0	800	800	800	1	0	1	-360	360	0.0000	0.0000	0.0000	0.0000	0.0000	0.0000	0.0000	0.0000;
	157	195	0	0.0446	0	800	800	800	1	0	1	-360	360	0.0000	0.0000	0.0000	0.0000	0.0000	0.0000	0.0000	0.0000;
	230	74	0	0.03882	0	1200	1200	1200	1	0	1	-360	360	0.0000	0.0000	0.0000	0.0000	0.0000	0.0000	0.0000	0.0000;
	193	103	0	0.02484	0	800	800	800	1	0	1	-360	360	0.0000	0.0000	0.0000	0.0000	0.0000	0.0000	0.0000	0.0000;
	95	13	0	0.01983	0	1600	1600	1600	1	0	1	-360	360	0.0000	0.0000	0.0000	0.0000	0.0000	0.0000	0.0000	0.0000;
	105	164	0	0.0045	0	800	800	800	1	0	1	-360	360	0.0000	0.0000	0.0000	0.0000	0.0000	0.0000	0.0000	0.0000;
	187	230	0	0.02702	0	1600	1600	1600	1	0	1	-360	360	0.0000	0.0000	0.0000	0.0000	0.0000	0.0000	0.0000	0.0000;
	191	195	0	0.03066	0	800	800	800	1	0	1	-360	360	0.0000	0.0000	0.0000	0.0000	0.0000	0.0000	0.0000	0.0000;
	231	150	0	0.02415	0	1200	1200	1200	1	0	1	-360	360	0.0000	0.0000	0.0000	0.0000	0.0000	0.0000	0.0000	0.0000;
	95	52	0	0.01247	0	1200	1200	1200	1	0	1	-360	360	0.0000	0.0000	0.0000	0.0000	0.0000	0.0000	0.0000	0.0000;
	100	221	0	0.01111	0	1200	1200	1200	1	0	1	-360	360	0.0000	0.0000	0.0000	0.0000	0.0000	0.0000	0.0000	0.0000;
	42	20	0	0.03447	0	800	800	800	1	0	1	-360	360	0.0000	0.0000	0.0000	0.0000	0.0000	0.0000	0.0000	0.0000;
	219	217	0	0.02661	0	800	800	800	1	0	1	-360	360	0.0000	0.0000	0.0000	0.0000	0.0000	0.0000	0.0000	0.0000;
	212	217	0	0.04206	0	800	800	800	1	0	1	-360	360	0.0000	0.0000	0.0000	0.0000	0.0000	0.0000	0.0000	0.0000;
	23	59	0	0.01998	0	1200	1200	1200	1	0	1	-360	360	0.0000	0.0000	0.0000	0.0000	0.0000	0.0000	0.0000	0.0000;
	213	212	0	0.02269	0	800	800	800	1	0	1	-360	360	0.0000	0.0000	0.0000	0.0000	0.0000	0.0000	0.0000	0.0000;
	174	111	0	0.00588	0	800	800	800	1	0	1	-360	360	0.0000	0.0000	0.0000	0.0000	0.0000	0.0000	0.0000	0.0000;
	92	9	0	0.02274	0	800	800	800	1	0	1	-360	360	0.0000	0.0000	0.0000	0.0000	0.0000	0.0000	0.0000	0.0000;
	117	80	0	0.01672	0	1200	1200	1200	1	0	1	-360	360	0.0000	0.0000	0.0000	0.0000	0.0000	0.0000	0.0000	0.0000;
	50	19	0	0.00759	0	1200	1200	1200	1	0	1	-360	360	0.0000	0.0000	0.0000	0.0000	0.0000	0.0000	0.0000	0.0000;
	210	152	0	0.01447	0	2800	2800	2800	1	0	1	-360	360	0.0000	0.0000	0.0000	0.0000	0.0000	0.0000	0.0000	0.0000;
	157	183	0	0.00437	0	800	800	800	1	0	1	-360	360	0.0000	0.0000	0.0000	0.0000	0.0000	0.0000	0.0000	0.0000;
	97	94	0	0.00611	0	2400	2400	2400	1	0	1	-360	360	0.0000	0.0000	0.0000	0.0000	0.0000	0.0000	0.0000	0.0000;
	77	191	0	0.08197	0	800	800	800	1	0	1	-360	360	0.0000	0.0000	0.0000	0.0000	0.0000	0.0000	0.0000	0.0000;
	155	133	0	0.03324	0	800	800	800	1	0	1	-360	360	0.0000	0.0000	0.0000	0.0000	0.0000	0.0000	0.0000	0.0000;
	93	114	0	0.00315	0	3600	3600	3600	1	0	1	-360	360	0.0000	0.0000	0.0000	0.0000	0.0000	0.0000	0.0000	0.0000;
	148	159	0	0.01162	0	2000	2000	2000	1	0	1	-360	360	0.0000	0.0000	0.0000	0.0000	0.0000	0.0000	0.0000	0.0000;
	120	15	0	0.01297	0	2000	2000	2000	1	0	1	-360	360	0.0000	0.0000	0.0000	0.0000	0.0000	0.0000	0.0000	0.0000;
	104	186	0	0.00684	0	1200	1200	1200	1	0	1	-360	360	0.0000	0.0000	0.0000	0.0000	0.0000	0.0000	0.0000	0.0000;
	56	39	0	0.02553	0	1600	1600	1600	1	0	1	-360	360	0.0000	0.0000	0.0000	0.0000	0.0000	0.0000	0.0000	0.0000;
	158	47	0	0.01068	0	3200	3200	3200	1	0	1	-360	360	0.0000	0.0000	0.0000	0.0000	0.0000	0.0000	0.0000	0.0000;
	32	34	0	0.04422	0	800	800	800	1	0	1	-360	360	0.0000	0.0000	0.0000	0.0000	0.0000	0.0000	0.0000	0.0000;
	21	129	0	0.02078	0	1600	1600	1600	1	0	1	-360	360	0.0000	0.0000	0.0000	0.0000	0.0000	0.0000	0.0000	0.0000;
	128	130	0	0.01649	0	800	800	800	1	0	1	-360	360	0.0000	0.0000	0.0000	0.0000	0.0000	0.0000	0.0000	0.0000;
	3	147	0	0.00599	0	2000	2000	2000	1	0	1	-360	360	0.0000	0.0000	0.0000	0.0000	0.0000	0.0000	0.0000	0.0000;
	158	73	0	0.00614	0	3200	3200	3200	1	0	1	-360	360	0.0000	0.0000	0.0000	0.0000	0.0000	0.0000	0.0000	0.0000;
	202	206	0	0.02484	0	800	800	800	1	0	1	-360	360	0.0000	0.0000	0.0000	0.0000	0.0000	0.0000	0.0000	0.0000;
	214	216	0	0.02119	0	800	800	800	1	0	1	-360	360	0.0000	0.0000	0.0000	0.0000	0.0000	0.0000	0.0000	0.0000;
	44	75	0	0.0419	0	800	800	800	1	0	1	-360	360	0.0000	0.0000	0.0000	0.0000	0.0000	0.0000	0.0000	0.0000;
	120	88	0	0.01084	0	800	800	800	1	0	1	-360	360	0.0000	0.0000	0.0000	0.0000	0.0000	0.0000	0.0000	0.0000;
	126	129	0	0.04182	0	1200	1200	1200	1	0	1	-360	360	0.0000	0.0000	0.0000	0.0000	0.0000	0.0000	0.0000	0.0000;
	219	207	0	0.01264	0	800	800	800	1	0	1	-360	360	0.0000	0.0000	0.0000	0.0000	0.0000	0.0000	0.0000	0.0000;
	123	113	0	0.00782	0	3200	3200	3200	1	0	1	-360	360	0.0000	0.0000	0.0000	0.0000	0.0000	0.0000	0.0000	0.0000;
	29	38	0	0.00745	0	4000	4000	4000	1	0	1	-360	360	0.0000	0.0000	0.0000	0.0000	0.0000	0.0000	0.0000	0.0000;
	222	102	0	0.00897	0	2400	2400	2400	1	0	1	-360	360	0.0000	0.0000	0.0000	0.0000	0.0000	0.0000	0.0000	0.0000;
	118	44	0	0.00734	0	1600	1600	1600	1	0	1	-360	360	0.0000	0.0000	0.0000	0.0000	0.0000	0.0000	0.0000	0.0000;
	117	121	0	0.0148	0	800	800	800	1	0	1	-360	360	0.0000	0.0000	0.0000	0.0000	0.0000	0.0000	0.0000	0.0000;
	149	163	0	0.03612	0	800	800	800	1	0	1	-360	360	0.0000	0.0000	0.0000	0.0000	0.0000	0.0000	0.0000	0.0000;
	196	150	0	0.01691	0	800	800	800	1	0	1	-360	360	0.0000	0.0000	0.0000	0.0000	0.0000	0.0000	0.0000	0.0000;
	50	125	0	0.00523	0	800	800	800	1	0	1	-360	360	0.0000	0.0000	0.0000	0.0000	0.0000	0.0000	0.0000	0.0000;
	44	224	0	0.01223	0	800	800	800	1	0	1	-360	360	0.0000	0.0000	0.0000	0.0000	0.0000	0.0000	0.0000	0.0000;
	215	219	0	0.00858	0	2400	2400	2400	1	0	1	-360	360	0.0000	0.0000	0.0000	0.0000	0.0000	0.0000	0.0000	0.0000;
	79	82	0	0.0041	0	4000	4000	4000	1	0	1	-360	360	0.0000	0.0000	0.0000	0.0000	0.0000	0.0000	0.0000	0.0000;
	95	114	0	0.06327	0	800	800	800	1	0	1	-360	360	0.0000	0.0000	0.0000	0.0000	0.0000	0.0000	0.0000	0.0000;
	114	47	0	0.00893	0	3200	3200	3200	1	0	1	-360	360	0.0000	0.0000	0.0000	0.0000	0.0000	0.0000	0.0000	0.0000;
	150	199	0	0.01917	0	2800	2800	2800	1	0	1	-360	360	0.0000	0.0000	0.0000	0.0000	0.0000	0.0000	0.0000	0.0000;
	85	108	0	0.00817	0	800	800	800	1	0	1	-360	360	0.0000	0.0000	0.0000	0.0000	0.0000	0.0000	0.0000	0.0000;
	219	218	0	0.04686	0	800	800	800	1	0	1	-360	360	0.0000	0.0000	0.0000	0.0000	0.0000	0.0000	0.0000	0.0000;
	67	72	0	0.0155	0	1600	1600	1600	1	0	1	-360	360	0.0000	0.0000	0.0000	0.0000	0.0000	0.0000	0.0000	0.0000;
	206	204	0	0.01884	0	2400	2400	2400	1	0	1	-360	360	0.0000	0.0000	0.0000	0.0000	0.0000	0.0000	0.0000	0.0000;
	60	55	0	0.00958	0	1200	1200	1200	1	0	1	-360	360	0.0000	0.0000	0.0000	0.0000	0.0000	0.0000	0.0000	0.0000;
	200	206	0	0.01219	0	2800	2800	2800	1	0	1	-360	360	0.0000	0.0000	0.0000	0.0000	0.0000	0.0000	0.0000	0.0000;
	159	138	0	0.03049	0	1200	1200	1200	1	0	1	-360	360	0.0000	0.0000	0.0000	0.0000	0.0000	0.0000	0.0000	0.0000;
	232	188	0	0.0075	0	1200	1200	1200	1	0	1	-360	360	0.0000	0.0000	0.0000	0.0000	0.0000	0.0000	0.0000	0.0000;
	39	126	0	0.01853	0	1200	1200	1200	1	0	1	-360	360	0.0000	0.0000	0.0000	0.0000	0.0000	0.0000	0.0000	0.0000;
	88	123	0	0.00964	0	800	800	800	1	0	1	-360	360	0.0000	0.0000	0.0000	0.0000	0.0000	0.0000	0.0000	0.0000;
	76	44	0	0.01091	0	800	800	800	1	0	1	-360	360	0.0000	0.0000	0.0000	0.0000	0.0000	0.0000	0.0000	0.0000;
	213	201	0	0.0606	0	800	800	800	1	0	1	-360	360	0.0000	0.0000	0.0000	0.0000	0.0000	0.0000	0.0000	0.0000;
	143	140	0	0.02897	0	2000	2000	2000	1	0	1	-360	360	0.0000	0.0000	0.0000	0.0000	0.0000	0.0000	0.0000	0.0000;
	137	57	0	0.03069	0	800	800	800	1	0	1	-360	360	0.0000	0.0000	0.0000	0.0000	0.0000	0.0000	0.0000	0.0000;
	103	107	0	0.01412	0	1200	1200	1200	1	0	1	-360	360	0.0000	0.0000	0.0000	0.0000	0.0000	0.0000	0.0000	0.0000;
	181	142	0	0.00896	0	2800	2800	2800	1	0	1	-360	360	0.0000	0.0000	0.0000	0.0000	0.0000	0.0000	0.0000	0.0000;
	54	29	0	0.00463	0	3200	3200	3200	1	0	1	-360	360	0.0000	0.0000	0.0000	0.0000	0.0000	0.0000	0.0000	0.0000;
	219	213	0	0.0241	0	800	800	800	1	0	1	-360	360	0.0000	0.0000	0.0000	0.0000	0.0000	0.0000	0.0000	0.0000;
	81	106	0	0.02626	0	1200	1200	1200	1	0	1	-360	360	0.0000	0.0000	0.0000	0.0000	0.0000	0.0000	0.0000	0.0000;
	28	15	0	0.0069	0	800	800	800	1	0	1	-360	360	0.0000	0.0000	0.0000	0.0000	0.0000	0.0000	0.0000	0.0000;
	85	112	0	0.03248	0	4000	4000	4000	1	0	1	-360	360	0.0000	0.0000	0.0000	0.0000	0.0000	0.0000	0.0000	0.0000;
	55	131	0	0.00514	0	800	800	800	1	0	1	-360	360	0.0000	0.0000	0.0000	0.0000	0.0000	0.0000	0.0000	0.0000;
	230	229	0	0.02623	0	800	800	800	1	0	1	-360	360	0.0000	0.0000	0.0000	0.0000	0.0000	0.0000	0.0000	0.0000;
	95	96	0	0.01772	0	1600	1600	1600	1	0	1	-360	360	0.0000	0.0000	0.0000	0.0000	0.0000	0.0000	0.0000	0.0000;
	159	166	0	0.01941	0	1200	1200	1200	1	0	1	-360	360	0.0000	0.0000	0.0000	0.0000	0.0000	0.0000	0.0000	0.0000;
	82	86	0	0.01022	0	2400	2400	2400	1	0	1	-360	360	0.0000	0.0000	0.0000	0.0000	0.0000	0.0000	0.0000	0.0000;
	187	190	0	0.04563	0	2000	2000	2000	1	0	1	-360	360	0.0000	0.0000	0.0000	0.0000	0.0000	0.0000	0.0000	0.0000;
	46	72	0	0.01866	0	800	800	800	1	0	1	-360	360	0.0000	0.0000	0.0000	0.0000	0.0000	0.0000	0.0000	0.0000;
	221	185	0	0.01103	0	2000	2000	2000	1	0	1	-360	360	0.0000	0.0000	0.0000	0.0000	0.0000	0.0000	0.0000	0.0000;
	127	23	0	0.01987	0	2800	2800	2800	1	0	1	-360	360	0.0000	0.0000	0.0000	0.0000	0.0000	0.0000	0.0000	0.0000;
	222	124	0	0.01547	0	1600	1600	1600	1	0	1	-360	360	0.0000	0.0000	0.0000	0.0000	0.0000	0.0000	0.0000	0.0000;
	189	82	0	0.02155	0	4000	4000	4000	1	0	1	-360	360	0.0000	0.0000	0.0000	0.0000	0.0000	0.0000	0.0000	0.0000;
	4	103	0	0.03237	0	2000	2000	2000	1	0	1	-360	360	0.0000	0.0000	0.0000	0.0000	0.0000	0.0000	0.0000	0.0000;
	222	186	0	0.07995	0	800	800	800	1	0	1	-360	360	0.0000	0.0000	0.0000	0.0000	0.0000	0.0000	0.0000	0.0000;
	201	210	0	0.03211	0	1600	1600	1600	1	0	1	-360	360	0.0000	0.0000	0.0000	0.0000	0.0000	0.0000	0.0000	0.0000;
	59	197	0	0.01836	0	1600	1600	1600	1	0	1	-360	360	0.0000	0.0000	0.0000	0.0000	0.0000	0.0000	0.0000	0.0000;
	143	178	0	0.05279	0	1200	1200	1200	1	0	1	-360	360	0.0000	0.0000	0.0000	0.0000	0.0000	0.0000	0.0000	0.0000;
	51	72	0	0.00695	0	3600	3600	3600	1	0	1	-360	360	0.0000	0.0000	0.0000	0.0000	0.0000	0.0000	0.0000	0.0000;
	110	30	0	0.00635	0	800	800	800	1	0	1	-360	360	0.0000	0.0000	0.0000	0.0000	0.0000	0.0000	0.0000	0.0000;
	23	20	0	0.00409	0	1200	1200	1200	1	0	1	-360	360	0.0000	0.0000	0.0000	0.0000	0.0000	0.0000	0.0000	0.0000;
	74	158	0	0.00401	0	4000	4000	4000	1	0	1	-360	360	0.0000	0.0000	0.0000	0.0000	0.0000	0.0000	0.0000	0.0000;
	185	87	0	0.00586	0	2000	2000	2000	1	0	1	-360	360	0.0000	0.0000	0.0000	0.0000	0.0000	0.0000	0.0000	0.0000;
	146	64	0	0.01279	0	800	800	800	1	0	1	-360	360	0.0000	0.0000	0.0000	0.0000	0.0000	0.0000	0.0000	0.0000;
	47	74	0	0.02421	0	1600	1600	1600	1	0	1	-360	360	0.0000	0.0000	0.0000	0.0000	0.0000	0.0000	0.0000	0.0000;
	130	53	0	0.0325	0	2000	2000	2000	1	0	1	-360	360	0.0000	0.0000	0.0000	0.0000	0.0000	0.0000	0.0000	0.0000;
	177	129	0	0.02331	0	800	800	800	1	0	1	-360	360	0.0000	0.0000	0.0000	0.0000	0.0000	0.0000	0.0000	0.0000;
	155	223	0	0.03585	0	800	800	800	1	0	1	-360	360	0.0000	0.0000	0.0000	0.0000	0.0000	0.0000	0.0000	0.0000;
	27	16	0	0.02604	0	1600	1600	1600	1	0	1	-360	360	0.0000	0.0000	0.0000	0.0000	0.0000	0.0000	0.0000	0.0000;
	85	196	0	0.03705	0	800	800	800	1	0	1	-360	360	0.0000	0.0000	0.0000	0.0000	0.0000	0.0000	0.0000	0.0000;
	144	143	0	0.01347	0	2400	2400	2400	1	0	1	-360	360	0.0000	0.0000	0.0000	0.0000	0.0000	0.0000	0.0000	0.0000;
	145	209	0	0.03387	0	800	800	800	1	0	1	-360	360	0.0000	0.0000	0.0000	0.0000	0.0000	0.0000	0.0000	0.0000;
	188	133	0	0.00442	0	1200	1200	1200	1	0	1	-360	360	0.0000	0.0000	0.0000	0.0000	0.0000	0.0000	0.0000	0.0000;
	167	58	0	0.03208	0	1600	1600	1600	1	0	1	-360	360	0.0000	0.0000	0.0000	0.0000	0.0000	0.0000	0.0000	0.0000;
	110	199	0	0.08153	0	4000	4000	4000	1	0	1	-360	360	0.0000	0.0000	0.0000	0.0000	0.0000	0.0000	0.0000	0.0000;
	79	174	0	0.0247	0	4000	4000	4000	1	0	1	-360	360	0.0000	0.0000	0.0000	0.0000	0.0000	0.0000	0.0000	0.0000;
	117	48	0	0.00679	0	800	800	800	1	0	1	-360	360	0.0000	0.0000	0.0000	0.0000	0.0000	0.0000	0.0000	0.0000;
	221	78	0	0.03824	0	2000	2000	2000	1	0	1	-360	360	0.0000	0.0000	0.0000	0.0000	0.0000	0.0000	0.0000	0.0000;
	155	187	0	0.01849	0	800	800	800	1	0	1	-360	360	0.0000	0.0000	0.0000	0.0000	0.0000	0.0000	0.0000	0.0000;
	3	104	0	0.01071	0	3200	3200	3200	1	0	1	-360	360	0.0000	0.0000	0.0000	0.0000	0.0000	0.0000	0.0000	0.0000;
	153	187	0	0.00803	0	1200	1200	1200	1	0	1	-360	360	0.0000	0.0000	0.0000	0.0000	0.0000	0.0000	0.0000	0.0000;
	68	231	0	0.01509	0	800	800	800	1	0	1	-360	360	0.0000	0.0000	0.0000	0.0000	0.0000	0.0000	0.0000	0.0000;
	52	47	0	0.00661	0	4800	4800	4800	1	0	1	-360	360	0.0000	0.0000	0.0000	0.0000	0.0000	0.0000	0.0000	0.0000;
	69	2	0	0.02237	0	1200	1200	1200	1	0	1	-360	360	0.0000	0.0000	0.0000	0.0000	0.0000	0.0000	0.0000	0.0000;
	107	169	0	0.01146	0	3600	3600	3600	1	0	1	-360	360	0.0000	0.0000	0.0000	0.0000	0.0000	0.0000	0.0000	0.0000;
	65	112	0	0.02424	0	2400	2400	2400	1	0	1	-360	360	0.0000	0.0000	0.0000	0.0000	0.0000	0.0000	0.0000	0.0000;
	66	73	0	0.00698	0	800	800	800	1	0	1	-360	360	0.0000	0.0000	0.0000	0.0000	0.0000	0.0000	0.0000	0.0000;
	136	132	0	0.00608	0	2800	2800	2800	1	0	1	-360	360	0.0000	0.0000	0.0000	0.0000	0.0000	0.0000	0.0000	0.0000;
	108	7	0	0.02273	0	3200	3200	3200	1	0	1	-360	360	0.0000	0.0000	0.0000	0.0000	0.0000	0.0000	0.0000	0.0000;
	186	102	0	0.0166	0	800	800	800	1	0	1	-360	360	0.0000	0.0000	0.0000	0.0000	0.0000	0.0000	0.0000	0.0000;
	19	91	0	0.00332	0	1200	1200	1200	1	0	1	-360	360	0.0000	0.0000	0.0000	0.0000	0.0000	0.0000	0.0000	0.0000;
	216	200	0	0.01225	0	2000	2000	2000	1	0	1	-360	360	0.0000	0.0000	0.0000	0.0000	0.0000	0.0000	0.0000	0.0000;
	167	161	0	0.02803	0	2000	2000	2000	1	0	1	-360	360	0.0000	0.0000	0.0000	0.0000	0.0000	0.0000	0.0000	0.0000;
	167	55	0	0.0389	0	1200	1200	1200	1	0	1	-360	360	0.0000	0.0000	0.0000	0.0000	0.0000	0.0000	0.0000	0.0000;
	82	112	0	0.00742	0	4000	4000	4000	1	0	1	-360	360	0.0000	0.0000	0.0000	0.0000	0.0000	0.0000	0.0000	0.0000;
	154	193	0	0.00743	0	800	800	800	1	0	1	-360	360	0.0000	0.0000	0.0000	0.0000	0.0000	0.0000	0.0000	0.0000;
	12	39	0	0.02018	0	800	800	800	1	0	1	-360	360	0.0000	0.0000	0.0000	0.0000	0.0000	0.0000	0.0000	0.0000;
	178	209	0	0.08865	0	800	800	800	1	0	1	-360	360	0.0000	0.0000	0.0000	0.0000	0.0000	0.0000	0.0000	0.0000;
	138	149	0	0.01516	0	2000	2000	2000	1	0	1	-360	360	0.0000	0.0000	0.0000	0.0000	0.0000	0.0000	0.0000	0.0000;
	191	208	0	0.00744	0	1200	1200	1200	1	0	1	-360	360	0.0000	0.0000	0.0000	0.0000	0.0000	0.0000	0.0000	0.0000;
	53	27	0	0.01552	0	1200	1200	1200	1	0	1	-360	360	0.0000	0.0000	0.0000	0.0000	0.0000	0.0000	0.0000	0.0000;
	63	174	0	0.05171	0	2400	2400	2400	1	0	1	-360	360	0.0000	0.0000	0.0000	0.0000	0.0000	0.0000	0.0000	0.0000;
	80	154	0	0.05651	0	800	800	800	1	0	1	-360	360	0.0000	0.0000	0.0000	0.0000	0.0000	0.0000	0.0000	0.0000;
	176	182	0	0.02608	0	3200	3200	3200	1	0	1	-360	360	0.0000	0.0000	0.0000	0.0000	0.0000	0.0000	0.0000	0.0000;
	192	82	0	0.02608	0	800	800	800	1	0	1	-360	360	0.0000	0.0000	0.0000	0.0000	0.0000	0.0000	0.0000	0.0000;
	195	81	0	0.05028	0	1200	1200	1200	1	0	1	-360	360	0.0000	0.0000	0.0000	0.0000	0.0000	0.0000	0.0000	0.0000;
	213	139	0	0.03567	0	1200	1200	1200	1	0	1	-360	360	0.0000	0.0000	0.0000	0.0000	0.0000	0.0000	0.0000	0.0000;
	167	130	0	0.10009	0	800	800	800	1	0	1	-360	360	0.0000	0.0000	0.0000	0.0000	0.0000	0.0000	0.0000	0.0000;
	81	109	0	0.02456	0	1200	1200	1200	1	0	1	-360	360	0.0000	0.0000	0.0000	0.0000	0.0000	0.0000	0.0000	0.0000;
	82	190	0	0.03433	0	3200	3200	3200	1	0	1	-360	360	0.0000	0.0000	0.0000	0.0000	0.0000	0.0000	0.0000	0.0000;
	118	32	0	0.03238	0	800	800	800	1	0	1	-360	360	0.0000	0.0000	0.0000	0.0000	0.0000	0.0000	0.0000	0.0000;
	91	42	0	0.0118	0	1600	1600	1600	1	0	1	-360	360	0.0000	0.0000	0.0000	0.0000	0.0000	0.0000	0.0000	0.0000;
	62	222	0	0.00994	0	3600	3600	3600	1	0	1	-360	360	0.0000	0.0000	0.0000	0.0000	0.0000	0.0000	0.0000	0.0000;
	10	176	0	0.00459	0	4000	4000	4000	1	0	1	-360	360	0.0000	0.0000	0.0000	0.0000	0.0000	0.0000	0.0000	0.0000;
	97	115	0	0.01719	0	800	800	800	1	0	1	-360	360	0.0000	0.0000	0.0000	0.0000	0.0000	0.0000	0.0000	0.0000;
	95	93	0	0.0049	0	2000	2000	2000	1	0	1	-360	360	0.0000	0.0000	0.0000	0.0000	0.0000	0.0000	0.0000	0.0000;
	16	89	0	0.01724	0	800	800	800	1	0	1	-360	360	0.0000	0.0000	0.0000	0.0000	0.0000	0.0000	0.0000	0.0000;
	184	175	0	0.01517	0	1200	1200	1200	1	0	1	-360	360	0.0000	0.0000	0.0000	0.0000	0.0000	0.0000	0.0000	0.0000;
	10	162	0	0.02902	0	800	800	800	1	0	1	-360	360	0.0000	0.0000	0.0000	0.0000	0.0000	0.0000	0.0000	0.0000;
	112	82	0	0.04978	0	800	800	800	1	0	1	-360	360	0.0000	0.0000	0.0000	0.0000	0.0000	0.0000	0.0000	0.0000;
	167	137	0	0.0233	0	2000	2000	2000	1	0	1	-360	360	0.0000	0.0000	0.0000	0.0000	0.0000	0.0000	0.0000	0.0000;
	195	193	0	0.04117	0	800	800	800	1	0	1	-360	360	0.0000	0.0000	0.0000	0.0000	0.0000	0.0000	0.0000	0.0000;
	95	60	0	0.08045	0	1200	1200	1200	1	0	1	-360	360	0.0000	0.0000	0.0000	0.0000	0.0000	0.0000	0.0000	0.0000;
	74	225	0	0.00438	0	4000	4000	4000	1	0	1	-360	360	0.0000	0.0000	0.0000	0.0000	0.0000	0.0000	0.0000	0.0000;
	167	127	0	0.01225	0	2000	2000	2000	1	0	1	-360	360	0.0000	0.0000	0.0000	0.0000	0.0000	0.0000	0.0000	0.0000;
	165	149	0	0.0153	0	3200	3200	3200	1	0	1	-360	360	0.0000	0.0000	0.0000	0.0000	0.0000	0.0000	0.0000	0.0000;
	82	199	0	0.00976	0	2000	2000	2000	1	0	1	-360	360	0.0000	0.0000	0.0000	0.0000	0.0000	0.0000	0.0000	0.0000;
	169	99	0	0.01142	0	1200	1200	1200	1	0	1	-360	360	0.0000	0.0000	0.0000	0.0000	0.0000	0.0000	0.0000	0.0000;
	171	40	0	0.023	0	1200	1200	1200	1	0	1	-360	360	0.0000	0.0000	0.0000	0.0000	0.0000	0.0000	0.0000	0.0000;
	220	186	0	0.00496	0	800	800	800	1	0	1	-360	360	0.0000	0.0000	0.0000	0.0000	0.0000	0.0000	0.0000	0.0000;
	20	59	0	0.0428	0	800	800	800	1	0	1	-360	360	0.0000	0.0000	0.0000	0.0000	0.0000	0.0000	0.0000	0.0000;
	5	194	0	0.02984	0	800	800	800	1	0	1	-360	360	0.0000	0.0000	0.0000	0.0000	0.0000	0.0000	0.0000	0.0000;
	42	15	0	0.00935	0	800	800	800	1	0	1	-360	360	0.0000	0.0000	0.0000	0.0000	0.0000	0.0000	0.0000	0.0000;
	72	223	0	0.03292	0	800	800	800	1	0	1	-360	360	0.0000	0.0000	0.0000	0.0000	0.0000	0.0000	0.0000	0.0000;
	204	209	0	0.02043	0	800	800	800	1	0	1	-360	360	0.0000	0.0000	0.0000	0.0000	0.0000	0.0000	0.0000	0.0000;
	205	181	0	0.0047	0	2400	2400	2400	1	0	1	-360	360	0.0000	0.0000	0.0000	0.0000	0.0000	0.0000	0.0000	0.0000;
	106	31	0	0.01042	0	2400	2400	2400	1	0	1	-360	360	0.0000	0.0000	0.0000	0.0000	0.0000	0.0000	0.0000	0.0000;
	153	133	0	0.01026	0	2400	2400	2400	1	0	1	-360	360	0.0000	0.0000	0.0000	0.0000	0.0000	0.0000	0.0000	0.0000;
	219	177	0	0.02589	0	800	800	800	1	0	1	-360	360	0.0000	0.0000	0.0000	0.0000	0.0000	0.0000	0.0000	0.0000;
	117	92	0	0.01818	0	2400	2400	2400	1	0	1	-360	360	0.0000	0.0000	0.0000	0.0000	0.0000	0.0000	0.0000	0.0000;
	87	198	0	0.02416	0	800	800	800	1	0	1	-360	360	0.0000	0.0000	0.0000	0.0000	0.0000	0.0000	0.0000	0.0000;
	153	230	0	0.0216	0	1600	1600	1600	1	0	1	-360	360	0.0000	0.0000	0.0000	0.0000	0.0000	0.0000	0.0000	0.0000;
	187	85	0	0.00888	0	4000	4000	4000	1	0	1	-360	360	0.0000	0.0000	0.0000	0.0000	0.0000	0.0000	0.0000	0.0000;
	79	112	0	0.01706	0	800	800	800	1	0	1	-360	360	0.0000	0.0000	0.0000	0.0000	0.0000	0.0000	0.0000	0.0000;
	228	221	0	0.05996	0	800	800	800	1	0	1	-360	360	0.0000	0.0000	0.0000	0.0000	0.0000	0.0000	0.0000	0.0000;
	117	45	0	0.01898	0	800	800	800	1	0	1	-360	360	0.0000	0.0000	0.0000	0.0000	0.0000	0.0000	0.0000	0.0000;
	119	92	0	0.03555	0	1600	1600	1600	1	0	1	-360	360	0.0000	0.0000	0.0000	0.0000	0.0000	0.0000	0.0000	0.0000;
	176	141	0	0.00815	0	1200	1200	1200	1	0	1	-360	360	0.0000	0.0000	0.0000	0.0000	0.0000	0.0000	0.0000	0.0000;
	36	23	0	0.01745	0	1200	1200	1200	1	0	1	-360	360	0.0000	0.0000	0.0000	0.0000	0.0000	0.0000	0.0000	0.0000;
	118	122	0	0.02777	0	800	800	800	1	0	1	-360	360	0.0000	0.0000	0.0000	0.0000	0.0000	0.0000	0.0000	0.0000;
	37	38	0	0.01361	0	2000	2000	2000	1	0	1	-360	360	0.0000	0.0000	0.0000	0.0000	0.0000	0.0000	0.0000	0.0000;
	129	136	0	0.01156	0	4000	4000	4000	1	0	1	-360	360	0.0000	0.0000	0.0000	0.0000	0.0000	0.0000	0.0000	0.0000;
	216	211	0	0.03986	0	2000	2000	2000	1	0	1	-360	360	0.0000	0.0000	0.0000	0.0000	0.0000	0.0000	0.0000	0.0000;
	118	12	0	0.01501	0	1600	1600	1600	1	0	1	-360	360	0.0000	0.0000	0.0000	0.0000	0.0000	0.0000	0.0000	0.0000;
	182	167	0	0.02829	0	3200	3200	3200	1	0	1	-360	360	0.0000	0.0000	0.0000	0.0000	0.0000	0.0000	0.0000	0.0000;
	26	61	0	0.01087	0	2000	2000	2000	1	0	1	-360	360	0.0000	0.0000	0.0000	0.0000	0.0000	0.0000	0.0000	0.0000;
	193	84	0	0.00758	0	1200	1200	1200	1	0	1	-360	360	0.0000	0.0000	0.0000	0.0000	0.0000	0.0000	0.0000	0.0000;
	73	227	0	0.01032	0	4000	4000	4000	1	0	1	-360	360	0.0000	0.0000	0.0000	0.0000	0.0000	0.0000	0.0000	0.0000;
	56	126	0	0.01097	0	2000	2000	2000	1	0	1	-360	360	0.0000	0.0000	0.0000	0.0000	0.0000	0.0000	0.0000	0.0000;
	222	173	0	0.01139	0	800	800	800	1	0	1	-360	360	0.0000	0.0000	0.0000	0.0000	0.0000	0.0000	0.0000	0.0000;
	61	128	0	0.0095	0	2800	2800	2800	1	0	1	-360	360	0.0000	0.0000	0.0000	0.0000	0.0000	0.0000	0.0000	0.0000;
	104	220	0	0.00484	0	1600	1600	1600	1	0	1	-360	360	0.0000	0.0000	0.0000	0.0000	0.0000	0.0000	0.0000	0.0000;
	194	83	0	0.05271	0	2400	2400	2400	1	0	1	-360	360	0.0000	0.0000	0.0000	0.0000	0.0000	0.0000	0.0000	0.0000;
	14	116	0	0.00706	0	1600	1600	1600	1	0	1	-360	360	0.0000	0.0000	0.0000	0.0000	0.0000	0.0000	0.0000	0.0000;
	206	205	0	0.00837	0	1600	1600	1600	1	0	1	-360	360	0.0000	0.0000	0.0000	0.0000	0.0000	0.0000	0.0000	0.0000;
	115	46	0	0.02603	0	1200	1200	1200	1	0	1	-360	360	0.0000	0.0000	0.0000	0.0000	0.0000	0.0000	0.0000	0.0000;
	225	230	0	0.00757	0	3600	3600	3600	1	0	1	-360	360	0.0000	0.0000	0.0000	0.0000	0.0000	0.0000	0.0000	0.0000;
	132	128	0	0.00808	0	2400	2400	2400	1	0	1	-360	360	0.0000	0.0000	0.0000	0.0000	0.0000	0.0000	0.0000	0.0000;
	126	22	0	0.03457	0	1200	1200	1200	1	0	1	-360	360	0.0000	0.0000	0.0000	0.0000	0.0000	0.0000	0.0000	0.0000;
	83	43	0	0.04365	0	800	800	800	1	0	1	-360	360	0.0000	0.0000	0.0000	0.0000	0.0000	0.0000	0.0000	0.0000;
	226	154	0	0.01575	0	800	800	800	1	0	1	-360	360	0.0000	0.0000	0.0000	0.0000	0.0000	0.0000	0.0000	0.0000;
	224	157	0	0.00524	0	800	800	800	1	0	1	-360	360	0.0000	0.0000	0.0000	0.0000	0.0000	0.0000	0.0000	0.0000;
	227	221	0	0.01147	0	4000	4000	4000	1	0	1	-360	360	0.0000	0.0000	0.0000	0.0000	0.0000	0.0000	0.0000	0.0000;
	123	67	0	0.00852	0	1200	1200	1200	1	0	1	-360	360	0.0000	0.0000	0.0000	0.0000	0.0000	0.0000	0.0000	0.0000;
	232	67	0	0.00955	0	800	800	800	1	0	1	-360	360	0.0000	0.0000	0.0000	0.0000	0.0000	0.0000	0.0000	0.0000;
	72	70	0	0.02045	0	800	800	800	1	0	1	-360	360	0.0000	0.0000	0.0000	0.0000	0.0000	0.0000	0.0000	0.0000;
	112	146	0	0.01091	0	1600	1600	1600	1	0	1	-360	360	0.0000	0.0000	0.0000	0.0000	0.0000	0.0000	0.0000	0.0000;
	94	15	0	0.00325	0	1200	1200	1200	1	0	1	-360	360	0.0000	0.0000	0.0000	0.0000	0.0000	0.0000	0.0000	0.0000;
	182	179	0	0.00528	0	1600	1600	1600	1	0	1	-360	360	0.0000	0.0000	0.0000	0.0000	0.0000	0.0000	0.0000	0.0000;
	11	77	0	0.02296	0	1200	1200	1200	1	0	1	-360	360	0.0000	0.0000	0.0000	0.0000	0.0000	0.0000	0.0000	0.0000;
	78	194	0	0.01425	0	3200	3200	3200	1	0	1	-360	360	0.0000	0.0000	0.0000	0.0000	0.0000	0.0000	0.0000	0.0000;
	19	90	0	0.00334	0	1600	1600	1600	1	0	1	-360	360	0.0000	0.0000	0.0000	0.0000	0.0000	0.0000	0.0000	0.0000;
	3	169	0	0.01122	0	4000	4000	4000	1	0	1	-360	360	0.0000	0.0000	0.0000	0.0000	0.0000	0.0000	0.0000	0.0000;
	125	28	0	0.00867	0	1600	1600	1600	1	0	1	-360	360	0.0000	0.0000	0.0000	0.0000	0.0000	0.0000	0.0000	0.0000;
	100	6	0	0.01041	0	800	800	800	1	0	1	-360	360	0.0000	0.0000	0.0000	0.0000	0.0000	0.0000	0.0000	0.0000;
	10	184	0	0.03467	0	800	800	800	1	0	1	-360	360	0.0000	0.0000	0.0000	0.0000	0.0000	0.0000	0.0000	0.0000;
	157	208	0	0.00944	0	1600	1600	1600	1	0	1	-360	360	0.0000	0.0000	0.0000	0.0000	0.0000	0.0000	0.0000	0.0000;
];

%%%% generator data
%%	bus	Pg	Qg	Qmax	Qmin	Vg	mBase	status	Pmax	Pmin	mu_Pmax	mu_Pmin	mu_Qmax	mu_Qmin
mpc.gen = [
	140	0	0	0	0	1	400	1	600	0	0	0	0	0;
	132	0	0	0	0	1	400	1	432	0	0	0	0	0;
	204	0	0	0	0	1	400	1	361	0	0	0	0	0;
	180	0	0	0	0	1	400	1	1200	0	0	0	0	0;
	95	0	0	0	0	1	400	1	860	0	0	0	0	0;
	214	0	0	0	0	1	400	1	343	0	0	0	0	0;
	11	0	0	0	0	1	400	1	100	0	0	0	0	0;
	204	0	0	0	0	1	400	1	1410	0	0	0	0	0;
	193	0	0	0	0	1	400	1	772	0	0	0	0	0;
	97	0	0	0	0	1	400	1	670	0	0	0	0	0;
	173	0	0	0	0	1	400	1	343	0	0	0	0	0;
	125	0	0	0	0	1	400	1	840	0	0	0	0	0;
	91	0	0	0	0	1	400	1	2260	0	0	0	0	0;
	215	0	0	0	0	1	400	1	508	0	0	0	0	0;
	15	0	0	0	0	1	400	1	840	0	0	0	0	0;
	54	0	0	0	0	1	400	1	3400	0	0	0	0	0;
	190	0	0	0	0	1	400	1	2850	0	0	0	0	0;
	48	0	0	0	0	1	400	1	500	0	0	0	0	0;
	190	0	0	0	0	1	400	1	2282	0	0	0	0	0;
	19	0	0	0	0	1	400	1	1100	0	0	0	0	0;
	93	0	0	0	0	1	400	1	1500	0	0	0	0	0;
	130	0	0	0	0	1	400	1	1000	0	0	0	0	0;
	19	0	0	0	0	1	400	1	400	0	0	0	0	0;
	79	0	0	0	0	1	400	1	1350	0	0	0	0	0;
	181	0	0	0	0	1	400	1	200	0	0	0	0	0;
	158	0	0	0	0	1	400	1	430	0	0	0	0	0;
	176	0	0	0	0	1	400	1	400	0	0	0	0	0;
	95	0	0	0	0	1	400	1	4000	0	0	0	0	0;
	60	0	0	0	0	1	400	1	2240	0	0	0	0	0;
	136	0	0	0	0	1	400	1	1000	0	0	0	0	0;
	200	0	0	0	0	1	400	1	771	0	0	0	0	0;
	187	0	0	0	0	1	400	1	2386	0	0	0	0	0;
	52	0	0	0	0	1	400	1	800	0	0	0	0	0;
	56	0	0	0	0	1	400	1	4450	0	0	0	0	0;
	143	0	0	0	0	1	400	1	500	0	0	0	0	0;
	107	0	0	0	0	1	400	1	650	0	0	0	0	0;
	107	0	0	0	0	1	400	1	1160	0	0	0	0	0;
	200	0	0	0	0	1	400	1	430	0	0	0	0	0;
	86	0	0	0	0	1	400	1	1937	0	0	0	0	0;
	211	0	0	0	0	1	400	1	2500	0	0	0	0	0;
	42	0	0	0	0	1	400	1	1266	0	0	0	0	0;
	32	0	0	0	0	1	400	1	2000	0	0	0	0	0;
	115	0	0	0	0	1	400	1	165	0	0	0	0	0;
	159	0	0	0	0	1	400	1	160	0	0	0	0	0;
	108	0	0	0	0	1	400	1	364	0	0	0	0	0;
	29	0	0	0	0	1	400	1	1000	0	0	0	0	0;
	128	0	0	0	0	1	400	1	2620	0	0	0	0	0;
	144	0	0	0	0	1	400	1	1345	0	0	0	0	0;
	179	0	0	0	0	1	400	1	300	0	0	0	0	0;
	44	0	0	0	0	1	400	1	650	0	0	0	0	0;
	59	0	0	0	0	1	400	1	2140	0	0	0	0	0;
	108	0	0	0	0	1	400	1	800	0	0	0	0	0;
	153	0	0	0	0	1	400	1	1200	0	0	0	0	0;
	158	0	0	0	0	1	400	1	4700	0	0	0	0	0;
	175	0	0	0	0	1	400	1	1000	0	0	0	0	0;
	125	0	0	0	0	1	400	1	1329	0	0	0	0	0;
	12	0	0	0	0	1	400	1	700	0	0	0	0	0;
	27	0	0	0	0	1	400	1	500	0	0	0	0	0;
	52	0	0	0	0	1	400	1	2500	0	0	0	0	0;
	195	0	0	0	0	1	400	1	2572	0	0	0	0	0;
	165	0	0	0	0	1	400	1	296	0	0	0	0	0;
	150	0	0	0	0	1	400	1	400	0	0	0	0	0;
	103	0	0	0	0	1	400	1	750	0	0	0	0	0;
	103	0	0	0	0	1	400	1	2350	0	0	0	0	0;
	208	0	0	0	0	1	400	1	1275	0	0	0	0	0;
	231	0	0	0	0	1	400	1	450	0	0	0	0	0;
	215	0	0	0	0	1	400	1	1294	0	0	0	0	0;
	108	0	0	0	0	1	400	1	858	0	0	0	0	0;
	18	0	0	0	0	1	400	1	500	0	0	0	0	0;
	123	0	0	0	0	1	400	1	2450	0	0	0	0	0;
	106	0	0	0	0	1	400	1	2572	0	0	0	0	0;
	73	0	0	0	0	1	400	1	5211	0	0	0	0	0;
	148	0	0	0	0	1	400	1	500	0	0	0	0	0;
	167	0	0	0	0	1	400	1	690	0	0	0	0	0;
	181	0	0	0	0	1	400	1	200	0	0	0	0	0;
	144	0	0	0	0	1	400	1	400	0	0	0	0	0;
	180	0	0	0	0	1	400	1	5438	0	0	0	0	0;
	31	0	0	0	0	1	400	1	2100	0	0	0	0	0;
	153	0	0	0	0	1	400	1	300	0	0	0	0	0;
	189	0	0	0	0	1	400	1	3500	0	0	0	0	0;
	209	0	0	0	0	1	400	1	820	0	0	0	0	0;
	232	0	0	0	0	1	400	1	1350	0	0	0	0	0;
];

%%%% generator cost data
%%	1	startup	shutdown	n	x1	y1	...	xn	yn
%%	2	startup	shutdown	n	c(n-1)	...	c0
mpc.gencost = [
	2	0	0	2	18.89	6420.01;
	2	0	0	2	16.4	4224.16;
	2	0	0	2	37.56	32764.7;
	2	0	0	2	29.73	19601;
	2	0	0	2	69.26	117427;
	2	0	0	2	15.47	3484.98;
	2	0	0	2	11.48	795.64;
	2	0	0	2	37.56	32764.7;
	2	0	0	2	19.97	7471.56;
	2	0	0	2	19.93	7426.36;
	2	0	0	2	15.58	3572.22;
	2	0	0	2	36.02	29936.4;
	2	0	0	2	43.48	44768.2;
	2	0	0	2	14.69	2894.9;
	2	0	0	2	22.44	10094.2;
	2	0	0	2	50.37	60933.2;
	2	0	0	2	48.69	56772;
	2	0	0	2	17.95	5559.12;
	2	0	0	2	48.69	56772;
	2	0	0	2	26.3	14788;
	2	0	0	2	32.22	23457.9;
	2	0	0	2	14.89	3040.01;
	2	0	0	2	26.3	14788;
	2	0	0	2	34.1	26578.7;
	2	0	0	2	12.96	1701.02;
	2	0	0	2	79.63	156030;
	2	0	0	2	15.93	3841.02;
	2	0	0	2	69.26	117427;
	2	0	0	2	49.4	58515.6;
	2	0	0	2	22.82	10513.4;
	2	0	0	2	23.11	10856.9;
	2	0	0	2	50.02	60041.1;
	2	0	0	2	43.13	44003.3;
	2	0	0	2	75.93	141626;
	2	0	0	2	12.44	1370.78;
	2	0	0	2	30.51	20778.7;
	2	0	0	2	30.51	20778.7;
	2	0	0	2	23.11	10856.9;
	2	0	0	2	46.03	50462.6;
	2	0	0	2	17.92	5524.42;
	2	0	0	2	28.76	18172.9;
	2	0	0	2	21.77	9351.02;
	2	0	0	2	12.44	1371.65;
	2	0	0	2	12.37	1325.7;
	2	0	0	2	17.9	5508.25;
	2	0	0	2	14.84	3006.16;
	2	0	0	2	22.8	10498.2;
	2	0	0	2	36.29	30419.3;
	2	0	0	2	11.47	786.66;
	2	0	0	2	19.63	7133.35;
	2	0	0	2	41.7	40982;
	2	0	0	2	17.9	5508.25;
	2	0	0	2	11.47	786.66;
	2	0	0	2	79.63	156030;
	2	0	0	2	30	20000;
	2	0	0	2	36.02	29936.4;
	2	0	0	2	13.42	2002.66;
	2	0	0	2	18.44	6003.72;
	2	0	0	2	43.13	44003.3;
	2	0	0	2	59.15	84972.9;
	2	0	0	2	14.39	2673.43;
	2	0	0	2	11.95	1072.75;
	2	0	0	2	15.73	3685.67;
	2	0	0	2	15.73	3685.67;
	2	0	0	2	28.52	17833.3;
	2	0	0	2	12.2	1220.27;
	2	0	0	2	14.69	2894.9;
	2	0	0	2	17.9	5508.25;
	2	0	0	2	15.45	3470.02;
	2	0	0	2	21.97	9568.45;
	2	0	0	2	59.93	87300.3;
	2	0	0	2	99.71	246062;
	2	0	0	2	15.41	3434.88;
	2	0	0	2	20.22	7723.77;
	2	0	0	2	12.96	1701.02;
	2	0	0	2	36.29	30419.3;
	2	0	0	2	29.73	19601;
	2	0	0	2	50.88	62230.4;
	2	0	0	2	11.47	786.66;
	2	0	0	2	61.85	93146.2;
	2	0	0	2	22.15	9763.92;
	2	0	0	2	33.75	25971.8;
];
